<NUMBER OF ZONES> 1 
<TOTAL OD FLOW>  4000 
<END OF METADATA>


Origin 1 
    25 :    4000;
