<NUMBER OF ZONES> 1 
<TOTAL OD FLOW>  10 
<END OF METADATA>


Origin 1 
    2 :    10;

