<NUMBER OF ZONES> 1											
<NUMBER OF NODES> 2											
<FIRST THRU NODE> 1											
<NUMBER OF LINKS> 3											
<END OF METADATA>											


~ 	Tail	Head	Capacity (veh/h)	Length (ft)	Free Flow Time (min)	B	Power	Speed (ft/min) 	Toll 	Type	;
1	2	2	0	10	0.15	4	0	0	0	;
1	2	4	0	20	0.15	4	0	0	0	;
1	2	3	0	25	0.15	4	0	0	0	;


