<NUMBER OF ZONES> 4											
<NUMBER OF NODES> 13											
<FIRST THRU NODE> 1											
<NUMBER OF LINKS> 19											
<END OF METADATA>											


~ 	Tail	Head	Capacity (veh/h)	Length (ft)	Free Flow Time (min)	B	Power	Speed (ft/min) 	Toll 	Type	;
	1	5	7			0		7			0.0125	1	0		0	1	;
	1	12	9			0		9			0.01	1	0		0	1	;
	4	5	9			0		9			0.01	1	0		0	1	;
	4	9	12			0		12			0.005	1	0		0	1	;
	5	6	3			0		3			0.0075	1	0		0	1	;
	5	9	9			0		9			0.0075	1	0		0	1	;
	6	7	5			0		5			0.0125	1	0		0	1	;
	6	10	13			0		13			0.005	1	0		0	1	;
	7	8	5			0		5			0.0125	1	0		0	1	;
	7	11	9			0		9			0.0125	1	0		0	1	;
	8	2	9			0		9			0.0125	1	0		0	1	;
	9	10	10			0		10			0.005	1	0		0	1	;
	9	13	9			0		9			0.005	1	0		0	1	;
	10	11	6			0		6			0.0025	1	0		0	1	;
	11	2	9			0		9			0.005	1	0		0	1	;
	11	3	8			0		8			0.01	1	0		0	1	;
	12	6	7			0		7			0.0125	1	0		0	1	;
	12	8	14			0		14			0.01	1	0		0	1	;
	13	3	11			0		11			0.01	1	0		0	1	;
